Version 4.1
SHEET 1 880 680
WIRE 320 0 144 0
WIRE 0 32 -176 32
WIRE 320 64 320 0
WIRE -176 80 -176 32
WIRE 0 96 0 32
WIRE 32 96 0 96
WIRE 144 96 144 0
WIRE 144 96 112 96
WIRE 32 128 0 128
WIRE 144 128 112 128
WIRE 144 192 144 128
WIRE 320 192 320 144
WIRE 320 192 144 192
WIRE -176 208 -176 160
WIRE 0 208 0 128
WIRE 0 208 -176 208
WIRE 320 224 320 192
FLAG 320 224 0
SYMBOL voltage -176 64 R0
WINDOW 0 -32 56 VBottom 2
WINDOW 3 -90 55 VTop 2
WINDOW 123 0 0 Left 0
SYMATTR InstName V1
SYMATTR Value SINE(0 170 60)
SYMATTR SpiceLine Rser=0.1
SYMBOL KBPC5010 80 112 M0
WINDOW 0 0 -40 Bottom 2
WINDOW 3 0 40 Top 2
SYMATTR InstName U1
SYMBOL res 304 48 R0
SYMATTR InstName Motor
SYMATTR Value 6
TEXT -144 -144 Left 2 !.tran 1000ms
