Version 4.1
SHEET 1 880 680
WIRE 0 32 -176 32
WIRE -176 80 -176 32
WIRE 0 96 0 32
WIRE 32 96 0 96
WIRE 32 128 0 128
WIRE -176 208 -176 160
WIRE 0 208 0 128
WIRE 0 208 -176 208
SYMBOL voltage -176 64 R0
WINDOW 0 -32 56 VBottom 2
WINDOW 3 -90 55 VTop 2
WINDOW 123 0 0 Left 0
WINDOW 39 0 0 Left 0
SYMATTR InstName V1
SYMATTR Value SINE(120 60 60)
SYMBOL KBPC5010 80 112 M0
WINDOW 0 0 -40 Bottom 2
WINDOW 3 0 40 Top 2
SYMATTR InstName U1
TEXT -144 -144 Left 2 !.tran 1000ms
