Version 4.1
SHEET 1 1016 900
WIRE -48 -16 -48 -48
WIRE 640 80 640 32
WIRE -48 96 -48 64
WIRE -48 96 -64 96
WIRE -48 192 -64 192
WIRE -48 224 -48 192
WIRE 432 256 240 256
WIRE 640 256 640 160
WIRE 640 256 592 256
WIRE 240 272 240 256
WIRE 432 288 416 288
WIRE 736 288 592 288
WIRE 432 320 416 320
WIRE 704 320 592 320
WIRE 432 352 368 352
WIRE 704 352 592 352
WIRE 752 352 704 352
WIRE 704 400 704 352
WIRE 368 416 368 352
WIRE 512 416 368 416
WIRE -48 432 -48 304
WIRE 368 464 368 416
WIRE 512 464 512 416
WIRE 704 512 704 480
WIRE 512 560 512 544
WIRE 640 560 512 560
WIRE 368 592 368 544
WIRE 704 704 704 608
WIRE 704 704 544 704
WIRE 736 704 704 704
WIRE 864 704 816 704
WIRE 992 704 944 704
FLAG 416 288 in+
FLAG 416 320 in-
FLAG 640 32 0
FLAG -48 -48 0
FLAG -64 96 in+
FLAG -64 192 in-
FLAG -48 432 0
FLAG 240 352 0
FLAG 816 288 0
FLAG 368 672 0
FLAG 464 704 0
FLAG 992 704 0
FLAG 752 352 0
SYMBOL TMCS1126x7A 512 304 R0
WINDOW 3 -2 -139 Top 2
WINDOW 39 1 -121 Top 2
SYMATTR InstName U1
SYMBOL voltage 640 176 M180
WINDOW 123 0 0 Left 0
WINDOW 39 0 0 Left 0
SYMATTR InstName V2
SYMATTR Value 5v
SYMBOL voltage -48 80 R180
WINDOW 0 24 96 Left 2
WINDOW 3 24 16 Left 2
WINDOW 123 0 0 Left 0
WINDOW 39 0 0 Left 0
SYMATTR InstName V4
SYMATTR Value SINE(0 125 120)
SYMBOL Res -64 320 M180
WINDOW 0 36 76 Left 2
WINDOW 3 36 40 Left 2
SYMATTR InstName RA1
SYMATTR Value 0.5
SYMBOL res 352 448 R0
SYMATTR InstName R4
SYMATTR Value 10K
SYMBOL voltage 240 256 R0
WINDOW 123 0 0 Left 0
WINDOW 39 0 0 Left 0
SYMATTR InstName V1
SYMATTR Value 2.5
SYMBOL voltage 720 288 R270
WINDOW 123 0 0 Left 0
WINDOW 39 0 0 Left 0
SYMATTR InstName V3
SYMATTR Value 0.3
SYMBOL voltage 368 576 R0
WINDOW 123 0 0 Left 0
WINDOW 39 0 0 Left 0
SYMATTR InstName V5
SYMATTR Value 5
SYMBOL voltage 560 704 R90
WINDOW 0 -49 -8 VRight 2
WINDOW 3 72 279 VLeft 2
WINDOW 123 0 0 Left 0
WINDOW 39 0 0 Left 0
SYMATTR InstName PWM_MCU
SYMATTR Value PULSE(0 3.3 0 10ns 10ns 25us 50us)
SYMBOL pnp 640 512 R0
WINDOW 0 -35 64 Left 2
WINDOW 3 -41 33 Left 2
SYMATTR InstName Q1
SYMBOL res 832 688 R90
WINDOW 0 0 56 VBottom 2
WINDOW 3 32 56 VTop 2
SYMATTR InstName R1
SYMATTR Value 100
SYMBOL res 688 384 R0
SYMATTR InstName R5
SYMATTR Value 1K
SYMBOL res 960 688 R90
WINDOW 0 0 56 VBottom 2
WINDOW 3 32 56 VTop 2
SYMATTR InstName Gate_Driver
SYMATTR Value 10K
SYMBOL res 496 448 R0
SYMATTR InstName R2
SYMATTR Value 1K
TEXT 72 0 Left 2 !.tran 200m
