Version 4.1
SHEET 1 1000 680
WIRE -48 -16 -48 -48
WIRE 640 48 640 32
WIRE 640 48 320 48
WIRE 912 48 640 48
WIRE 640 80 640 48
WIRE -48 96 -48 64
WIRE -48 96 -64 96
WIRE 320 160 320 48
WIRE 352 160 320 160
WIRE 464 160 432 160
WIRE 512 160 464 160
WIRE 640 160 592 160
WIRE 704 160 640 160
WIRE 800 160 784 160
WIRE 832 160 800 160
WIRE 912 160 912 48
WIRE -48 192 -64 192
WIRE 464 208 464 160
WIRE 464 208 368 208
WIRE -48 224 -48 192
WIRE 368 256 368 208
WIRE 432 256 368 256
WIRE 640 256 640 160
WIRE 640 256 592 256
WIRE 800 272 800 160
WIRE 800 272 688 272
WIRE 432 288 416 288
WIRE 688 288 688 272
WIRE 688 288 592 288
WIRE 432 320 416 320
WIRE 704 320 592 320
WIRE 832 320 784 320
WIRE 880 320 832 320
WIRE -48 352 -48 304
WIRE 432 352 368 352
WIRE 608 352 592 352
WIRE 368 400 368 352
WIRE 832 400 832 384
WIRE 368 528 368 480
FLAG 416 288 in+
FLAG 416 320 in-
FLAG 832 400 0
FLAG 608 352 0
FLAG 640 32 0
FLAG -48 -48 0
FLAG -64 96 in+
FLAG -64 192 in-
FLAG -48 432 0
FLAG 368 528 0
SYMBOL res 688 304 M90
WINDOW 0 0 56 VBottom 2
WINDOW 3 32 56 VTop 2
SYMATTR InstName R1
SYMATTR Value 15K
SYMBOL cap 848 320 M0
SYMATTR InstName C1
SYMATTR Value 0.005µ
SYMBOL TMCS1126x7A 512 304 R0
SYMATTR InstName U1
SYMBOL voltage 640 176 M180
WINDOW 123 0 0 Left 0
WINDOW 39 0 0 Left 0
SYMATTR InstName V2
SYMATTR Value 5v
SYMBOL voltage -48 80 R180
WINDOW 0 24 96 Left 2
WINDOW 3 24 16 Left 2
WINDOW 123 0 0 Left 0
WINDOW 39 0 0 Left 0
SYMATTR InstName V4
SYMATTR Value SINE(85 85 120)
SYMBOL ind -64 448 M180
WINDOW 0 36 80 Left 2
WINDOW 3 36 40 Left 2
SYMATTR InstName LA1
SYMATTR Value 50µH
SYMATTR SpiceLine Rser=0
SYMBOL Res -64 320 M180
WINDOW 0 36 76 Left 2
WINDOW 3 36 40 Left 2
SYMATTR InstName RA1
SYMATTR Value 5
SYMBOL res 928 176 M270
WINDOW 0 32 56 VTop 2
WINDOW 3 0 56 VBottom 2
SYMATTR InstName R2
SYMATTR Value 75
SYMBOL res 800 176 M270
WINDOW 0 32 56 VTop 2
WINDOW 3 0 56 VBottom 2
SYMATTR InstName R3
SYMATTR Value 1175
SYMBOL res 352 384 R0
SYMATTR InstName R4
SYMATTR Value 10K
SYMBOL res 608 144 R90
WINDOW 0 0 56 VBottom 2
WINDOW 3 32 56 VTop 2
SYMATTR InstName R5
SYMATTR Value 1K
SYMBOL res 448 144 R90
WINDOW 0 0 56 VBottom 2
WINDOW 3 32 56 VTop 2
SYMATTR InstName R6
SYMATTR Value 1K
TEXT 184 192 Left 2 !.tran 5000ms
