Version 4.1
SHEET 1 1108 1172
WIRE -112 224 -192 224
WIRE 64 224 -16 224
WIRE 112 224 64 224
WIRE 320 224 192 224
WIRE 320 240 320 224
WIRE 64 256 64 224
WIRE -512 272 -576 272
WIRE -368 272 -416 272
WIRE 400 304 368 304
WIRE 496 304 480 304
WIRE 528 304 496 304
WIRE -512 320 -576 320
WIRE -368 320 -400 320
WIRE -192 336 -192 224
WIRE 496 336 496 304
WIRE 64 352 64 336
WIRE 272 352 272 304
WIRE 272 352 64 352
WIRE -512 384 -512 352
WIRE -64 384 -64 368
WIRE 64 384 64 352
WIRE 496 432 496 416
WIRE -704 656 -736 656
WIRE -576 656 -624 656
WIRE -256 656 -576 656
WIRE -160 656 -176 656
WIRE -32 656 -80 656
WIRE -576 704 -576 656
WIRE -512 704 -576 704
WIRE -576 736 -576 704
WIRE -160 752 -160 656
WIRE -320 800 -384 800
WIRE -224 800 -240 800
WIRE -576 832 -576 816
WIRE -160 896 -160 848
FLAG 64 464 0
FLAG -816 656 0
FLAG -32 656 0
FLAG -576 272 S
FLAG -576 320 R
FLAG -368 272 O_SR
FLAG -512 704 R
FLAG 528 304 S
FLAG -384 800 O_SR
FLAG -160 896 0
FLAG -64 464 0
FLAG -192 336 0
FLAG -512 384 0
FLAG 496 432 0
FLAG -576 832 0
SYMBOL res 48 240 R0
SYMATTR InstName R4
SYMATTR Value 10K
SYMBOL voltage 64 368 R0
WINDOW 123 0 0 Left 0
WINDOW 39 0 0 Left 0
SYMATTR InstName V5
SYMATTR Value 5
SYMBOL voltage -720 656 R90
WINDOW 0 -49 -8 VRight 2
WINDOW 3 72 279 Invisible 2
WINDOW 123 0 0 Left 0
WINDOW 39 0 0 Left 0
SYMATTR InstName PWM_MCU
SYMATTR Value PULSE(0 3.3 0 10ns 10ns 25us 50us)
SYMBOL res -64 640 R90
WINDOW 0 -8 3 VBottom 2
WINDOW 3 32 56 VTop 2
SYMATTR InstName Gate_Driver
SYMATTR Value 10K
SYMBOL res -608 640 R90
WINDOW 0 -6 55 VBottom 2
WINDOW 3 32 56 VTop 2
SYMATTR InstName R3
SYMATTR Value 1K
SYMBOL pnp 368 240 R90
SYMATTR InstName Q1
SYMBOL res 208 208 R90
WINDOW 0 0 56 VBottom 2
WINDOW 3 32 56 VTop 2
SYMATTR InstName R1
SYMATTR Value 1K
SYMBOL npn -224 752 R0
SYMATTR InstName Q2
SYMBOL res -224 784 R90
WINDOW 0 0 56 VBottom 2
WINDOW 3 32 56 VTop 2
SYMATTR InstName R2
SYMATTR Value 1K
SYMBOL Digital\\srflop -464 224 R0
WINDOW 3 -40 28 Invisible 2
SYMATTR InstName A3
SYMATTR Value Vhigh=3.3
SYMATTR Value2 Vlow=0
SYMBOL res -160 640 R90
WINDOW 0 0 56 VBottom 2
WINDOW 3 32 56 VTop 2
SYMATTR InstName R7
SYMATTR Value 100
SYMBOL voltage -64 368 R0
WINDOW 3 24 96 Invisible 2
WINDOW 123 0 0 Left 0
WINDOW 39 0 0 Left 0
SYMATTR InstName OC
SYMATTR Value PULSE(0 5 0 0 0 65ms 75ms)
SYMBOL npn -16 288 M270
SYMATTR InstName Q3
SYMBOL res -80 272 R0
SYMATTR InstName R6
SYMATTR Value 1K
SYMBOL res 496 288 R90
WINDOW 0 0 56 VBottom 2
WINDOW 3 32 56 VTop 2
SYMATTR InstName R8
SYMATTR Value 10K
SYMBOL res 480 320 R0
SYMATTR InstName R5
SYMATTR Value 100K
SYMBOL res -592 720 R0
SYMATTR InstName R9
SYMATTR Value 100K
TEXT 72 0 Left 2 !.tran 200m
TEXT -616 136 Left 2 ;SR Latch -- avoid OC being \noscillating on and off > 20Khz
