Version 4.1
SHEET 1 880 680
WIRE 160 -80 -352 -80
WIRE -352 0 -352 -80
WIRE -272 0 -352 0
WIRE -176 0 -192 0
WIRE -160 0 -176 0
WIRE -48 0 -80 0
WIRE -352 32 -352 0
WIRE -48 48 -48 0
WIRE 160 96 160 -80
WIRE -176 112 -176 0
WIRE 128 112 -176 112
WIRE -352 128 -352 112
WIRE 256 128 192 128
WIRE 128 144 48 144
WIRE 160 176 160 160
WIRE -64 320 -80 320
WIRE 48 320 48 144
WIRE 48 320 16 320
WIRE 80 320 48 320
WIRE 208 320 160 320
WIRE 208 352 208 320
WIRE -80 400 -80 320
WIRE 240 400 -80 400
WIRE -80 448 -80 400
WIRE 240 448 240 400
WIRE 240 544 240 528
WIRE -80 560 -80 528
FLAG -80 560 0
FLAG -352 128 0
FLAG 240 544 0
FLAG 160 176 0
FLAG 208 352 0
FLAG -48 48 0
SYMBOL voltage -80 432 R0
WINDOW 123 0 0 Left 0
WINDOW 39 0 0 Left 0
SYMATTR InstName V1
SYMATTR Value SINE(100 100 120)
SYMBOL voltage -352 16 R0
WINDOW 123 0 0 Left 0
WINDOW 39 0 0 Left 0
SYMATTR InstName V2
SYMATTR Value 3.3
SYMBOL res 224 432 R0
SYMATTR InstName MOTOR
SYMATTR Value 0.5
SYMBOL res 32 304 R90
WINDOW 0 0 56 VBottom 2
WINDOW 3 32 56 VTop 2
SYMATTR InstName R2
SYMATTR Value 1.2Meg
SYMBOL res 176 304 R90
WINDOW 0 0 56 VBottom 2
WINDOW 3 32 56 VTop 2
SYMATTR InstName R3
SYMATTR Value 20K
SYMBOL res -176 -16 R90
WINDOW 0 0 56 VBottom 2
WINDOW 3 32 56 VTop 2
SYMATTR InstName R1
SYMATTR Value 2K
SYMBOL res -64 -16 R90
WINDOW 0 0 56 VBottom 2
WINDOW 3 32 56 VTop 2
SYMATTR InstName R4
SYMATTR Value 10K
SYMBOL Comparators\\LT1018 160 128 R0
SYMATTR InstName U1
TEXT -72 -160 Left 2 !.tran 100ms
